****************************************************************
*HEADING
Brain growth  2D
**
**
** Shuolun Wang, august 2019
** 
**      Material parameter 
**      **white matters
**      mu        = props(1)
**      lambda    = props(2)
**      Gaxn      = props(3)
**      lam0      = props(4)
**      **gray matter 
**      mu_g      = props(5)
**      lambda_g  = props(6)
**      Gctx      = props(7)
**      Aconst    = props(8)
***     charlength = props(9)
**
**      State variables
**      statev(1) = growth parameter 
**      statev(2) = coordx     
**      statev(3) = coordy 
**      statev(4) = coordz 
**      statev(5) = curvature
*****************************************************************
**			input parameters
*****************************************************************
*parameter
**
***** white matter 
** shear modulus(Pa)
mu = 0.1e3
**
** mechanical constant(Pa)
lam = 0.93e3
**
**
** Axon growth rate (1/hour)
Gaxn = 0.1
**
** Stretch threshold 
lam0 = 1.0
**
**
**  stiffness ratio 
stiffratio = 1.0
**
**** Gray matter
** shear modulus(Pa)
mu_g = stiffratio*mu
**
** mechanical constant(Pa)
lambda_g = stiffratio*lam
**
**
** rate constant for curvature 
Aconst = 1.0
**
** characterstic length (m)
charlength = 1.25e-3
**
** mass scaling 
mass_factor = 5.0
**
** viscous pressure coefficient
cd = 100.0
**
**cortex growth rate (1/hour)
Gctx = 1.0
**
** maximum cortex growth 
Gctx_max = 3.0 
** 
** time for growth (h) 
time = (Gctx_max - 1.0)/Gctx
**
** 
**
**
**
****************************************************************
** 			MODEL DEFINITION
****************************************************************
*System
       -0.57,       -0.39,          0.,        0.43,       -0.39,          0.
*Node
      1,  0.540000021,  0.399374992
      2,  0.600000024,  0.399374992
      3,  0.600000024,  0.400000006
      4,  0.540000021,  0.400000006
      5,  0.600000024,  0.398750007
      6,  0.540000021,  0.398750007
      7,  0.540000021,  0.379999995
      8,  0.600000024,  0.379999995
      9,  0.540400028,  0.399374992
     10,  0.540799975,  0.399374992
     11,  0.541199982,  0.399374992
     12,  0.541599989,  0.399374992
     13,  0.541999996,  0.399374992
     14,  0.542400002,  0.399374992
     15,  0.542800009,  0.399374992
     16,  0.543200016,  0.399374992
     17,  0.543600023,  0.399374992
     18,   0.54400003,  0.399374992
     19,  0.544399977,  0.399374992
     20,  0.544799984,  0.399374992
** ... 2698 like lines cut
*imperfection
233, 0.0, -1.0e-6
*Element, type=CPE4R
  1,   1,   9, 306,   4
  2,   9,  10, 305, 306
  3,  10,  11, 304, 305
  4,  11,  12, 303, 304
  5,  12,  13, 302, 303
  6,  13,  14, 301, 302
  7,  14,  15, 300, 301
  8,  15,  16, 299, 300
  9,  16,  17, 298, 299
 10,  17,  18, 297, 298
 11,  18,  19, 296, 297
 12,  19,  20, 295, 296
 13,  20,  21, 294, 295
 14,  21,  22, 293, 294
 15,  22,  23, 292, 293
 16,  23,  24, 291, 292
 17,  24,  25, 290, 291
 18,  25,  26, 289, 290
 19,  26,  27, 288, 289
 20,  27,  28, 287, 288
** ... 2530 like lines cut
*Nset, nset=box-1_bottom
   7,   8, 470, 471, 472, 473, 474, 475, 476, 477, 478, 479, 480, 481, 482, 483
 484, 485, 486, 487, 488, 489, 490, 491, 492, 493, 494, 495, 496, 497, 498, 499
 500, 501, 502, 503, 504, 505, 506, 507, 508, 509, 510, 511, 512, 513, 514, 515
 516, 517, 518, 519, 520, 521, 522, 523, 524, 525, 526, 527, 528, 529, 530, 531
 532, 533, 534, 535, 536, 537, 538, 539, 540, 541, 542, 543, 544, 545, 546, 547
 548, 549, 550, 551, 552, 553, 554, 555, 556, 557, 558, 559, 560, 561, 562, 563
 564, 565, 566, 567, 568, 569, 570, 571, 572, 573, 574, 575, 576, 577, 578, 579
 580, 581, 582, 583, 584, 585, 586, 587, 588, 589, 590, 591, 592, 593, 594, 595
 596, 597, 598, 599, 600, 601, 602, 603, 604, 605, 606, 607, 608, 609, 610, 611
 612, 613, 614, 615, 616, 617, 618
*Elset, elset=box-1_bottom, generate
 2251,  2400,     1
*Nset, nset=box-1_top
   3,   4, 158, 159, 160, 161, 162, 163, 164, 165, 166, 167, 168, 169, 170, 171
 172, 173, 174, 175, 176, 177, 178, 179, 180, 181, 182, 183, 184, 185, 186, 187
 188, 189, 190, 191, 192, 193, 194, 195, 196, 197, 198, 199, 200, 201, 202, 203
 204, 205, 206, 207, 208, 209, 210, 211, 212, 213, 214, 215, 216, 217, 218, 219
 220, 221, 222, 223, 224, 225, 226, 227, 228, 229, 230, 231, 232, 233, 234, 235
 236, 237, 238, 239, 240, 241, 242, 243, 244, 245, 246, 247, 248, 249, 250, 251
 252, 253, 254, 255, 256, 257, 258, 259, 260, 261, 262, 263, 264, 265, 266, 267
 268, 269, 270, 271, 272, 273, 274, 275, 276, 277, 278, 279, 280, 281, 282, 283
 284, 285, 286, 287, 288, 289, 290, 291, 292, 293, 294, 295, 296, 297, 298, 299
 300, 301, 302, 303, 304, 305, 306
*Elset, elset=box-1_top, generate
   1,  150,    1
*Nset, nset=box-1_graybot
   5,   6, 307, 308, 309, 310, 311, 312, 313, 314, 315, 316, 317, 318, 319, 320
 321, 322, 323, 324, 325, 326, 327, 328, 329, 330, 331, 332, 333, 334, 335, 336
 337, 338, 339, 340, 341, 342, 343, 344, 345, 346, 347, 348, 349, 350, 351, 352
 353, 354, 355, 356, 357, 358, 359, 360, 361, 362, 363, 364, 365, 366, 367, 368
 369, 370, 371, 372, 373, 374, 375, 376, 377, 378, 379, 380, 381, 382, 383, 384
 385, 386, 387, 388, 389, 390, 391, 392, 393, 394, 395, 396, 397, 398, 399, 400
 401, 402, 403, 404, 405, 406, 407, 408, 409, 410, 411, 412, 413, 414, 415, 416
 417, 418, 419, 420, 421, 422, 423, 424, 425, 426, 427, 428, 429, 430, 431, 432
 433, 434, 435, 436, 437, 438, 439, 440, 441, 442, 443, 444, 445, 446, 447, 448
 449, 450, 451, 452, 453, 454, 455
*Elset, elset=box-1_graybot
  151,  152,  153,  154,  155,  156,  157,  158,  159,  160,  161,  162,  163,  164,  165,  166
  167,  168,  169,  170,  171,  172,  173,  174,  175,  176,  177,  178,  179,  180,  181,  182
  183,  184,  185,  186,  187,  188,  189,  190,  191,  192,  193,  194,  195,  196,  197,  198
  199,  200,  201,  202,  203,  204,  205,  206,  207,  208,  209,  210,  211,  212,  213,  214
  215,  216,  217,  218,  219,  220,  221,  222,  223,  224,  225,  226,  227,  228,  229,  230
  231,  232,  233,  234,  235,  236,  237,  238,  239,  240,  241,  242,  243,  244,  245,  246
  247,  248,  249,  250,  251,  252,  253,  254,  255,  256,  257,  258,  259,  260,  261,  262
  263,  264,  265,  266,  267,  268,  269,  270,  271,  272,  273,  274,  275,  276,  277,  278
  279,  280,  281,  282,  283,  284,  285,  286,  287,  288,  289,  290,  291,  292,  293,  294
  295,  296,  297,  298,  299,  300, 2401, 2402, 2403, 2404, 2405, 2406, 2407, 2408, 2409, 2410
 2411, 2412, 2413, 2414, 2415, 2416, 2417, 2418, 2419, 2420, 2421, 2422, 2423, 2424, 2425, 2426
 2427, 2428, 2429, 2430, 2431, 2432, 2433, 2434, 2435, 2436, 2437, 2438, 2439, 2440, 2441, 2442
 2443, 2444, 2445, 2446, 2447, 2448, 2449, 2450, 2451, 2452, 2453, 2454, 2455, 2456, 2457, 2458
 2459, 2460, 2461, 2462, 2463, 2464, 2465, 2466, 2467, 2468, 2469, 2470, 2471, 2472, 2473, 2474
 2475, 2476, 2477, 2478, 2479, 2480, 2481, 2482, 2483, 2484, 2485, 2486, 2487, 2488, 2489, 2490
 2491, 2492, 2493, 2494, 2495, 2496, 2497, 2498, 2499, 2500, 2501, 2502, 2503, 2504, 2505, 2506
 2507, 2508, 2509, 2510, 2511, 2512, 2513, 2514, 2515, 2516, 2517, 2518, 2519, 2520, 2521, 2522
 2523, 2524, 2525, 2526, 2527, 2528, 2529, 2530, 2531, 2532, 2533, 2534, 2535, 2536, 2537, 2538
 2539, 2540, 2541, 2542, 2543, 2544, 2545, 2546, 2547, 2548, 2549, 2550
*Nset, nset=box-1_all, generate
    1,  2718,     1
*Elset, elset=box-1_all, generate
    1,  2550,     1
*Nset, nset=box-1_gray1
   1,   2,   3,   4,   9,  10,  11,  12,  13,  14,  15,  16,  17,  18,  19,  20
  21,  22,  23,  24,  25,  26,  27,  28,  29,  30,  31,  32,  33,  34,  35,  36
  37,  38,  39,  40,  41,  42,  43,  44,  45,  46,  47,  48,  49,  50,  51,  52
  53,  54,  55,  56,  57,  58,  59,  60,  61,  62,  63,  64,  65,  66,  67,  68
  69,  70,  71,  72,  73,  74,  75,  76,  77,  78,  79,  80,  81,  82,  83,  84
  85,  86,  87,  88,  89,  90,  91,  92,  93,  94,  95,  96,  97,  98,  99, 100
 101, 102, 103, 104, 105, 106, 107, 108, 109, 110, 111, 112, 113, 114, 115, 116
 117, 118, 119, 120, 121, 122, 123, 124, 125, 126, 127, 128, 129, 130, 131, 132
 133, 134, 135, 136, 137, 138, 139, 140, 141, 142, 143, 144, 145, 146, 147, 148
 149, 150, 151, 152, 153, 154, 155, 156, 157, 158, 159, 160, 161, 162, 163, 164
 165, 166, 167, 168, 169, 170, 171, 172, 173, 174, 175, 176, 177, 178, 179, 180
 181, 182, 183, 184, 185, 186, 187, 188, 189, 190, 191, 192, 193, 194, 195, 196
 197, 198, 199, 200, 201, 202, 203, 204, 205, 206, 207, 208, 209, 210, 211, 212
 213, 214, 215, 216, 217, 218, 219, 220, 221, 222, 223, 224, 225, 226, 227, 228
 229, 230, 231, 232, 233, 234, 235, 236, 237, 238, 239, 240, 241, 242, 243, 244
 245, 246, 247, 248, 249, 250, 251, 252, 253, 254, 255, 256, 257, 258, 259, 260
 261, 262, 263, 264, 265, 266, 267, 268, 269, 270, 271, 272, 273, 274, 275, 276
 277, 278, 279, 280, 281, 282, 283, 284, 285, 286, 287, 288, 289, 290, 291, 292
 293, 294, 295, 296, 297, 298, 299, 300, 301, 302, 303, 304, 305, 306
*Elset, elset=box-1_gray1, generate
   1,  150,    1
*Nset, nset=box-1_gray2
   1,   2,   5,   6,   9,  10,  11,  12,  13,  14,  15,  16,  17,  18,  19,  20
  21,  22,  23,  24,  25,  26,  27,  28,  29,  30,  31,  32,  33,  34,  35,  36
  37,  38,  39,  40,  41,  42,  43,  44,  45,  46,  47,  48,  49,  50,  51,  52
  53,  54,  55,  56,  57,  58,  59,  60,  61,  62,  63,  64,  65,  66,  67,  68
  69,  70,  71,  72,  73,  74,  75,  76,  77,  78,  79,  80,  81,  82,  83,  84
  85,  86,  87,  88,  89,  90,  91,  92,  93,  94,  95,  96,  97,  98,  99, 100
 101, 102, 103, 104, 105, 106, 107, 108, 109, 110, 111, 112, 113, 114, 115, 116
 117, 118, 119, 120, 121, 122, 123, 124, 125, 126, 127, 128, 129, 130, 131, 132
 133, 134, 135, 136, 137, 138, 139, 140, 141, 142, 143, 144, 145, 146, 147, 148
 149, 150, 151, 152, 153, 154, 155, 156, 157, 307, 308, 309, 310, 311, 312, 313
 314, 315, 316, 317, 318, 319, 320, 321, 322, 323, 324, 325, 326, 327, 328, 329
 330, 331, 332, 333, 334, 335, 336, 337, 338, 339, 340, 341, 342, 343, 344, 345
 346, 347, 348, 349, 350, 351, 352, 353, 354, 355, 356, 357, 358, 359, 360, 361
 362, 363, 364, 365, 366, 367, 368, 369, 370, 371, 372, 373, 374, 375, 376, 377
 378, 379, 380, 381, 382, 383, 384, 385, 386, 387, 388, 389, 390, 391, 392, 393
 394, 395, 396, 397, 398, 399, 400, 401, 402, 403, 404, 405, 406, 407, 408, 409
 410, 411, 412, 413, 414, 415, 416, 417, 418, 419, 420, 421, 422, 423, 424, 425
 426, 427, 428, 429, 430, 431, 432, 433, 434, 435, 436, 437, 438, 439, 440, 441
 442, 443, 444, 445, 446, 447, 448, 449, 450, 451, 452, 453, 454, 455
*Elset, elset=box-1_gray2, generate
 2401,  2550,     1
*Nset, nset=box-1_left
   1,   4,   6,   7, 456, 457, 458, 459, 460, 461, 462, 463, 464, 465, 466, 467
 468, 469
*Elset, elset=box-1_left
    1,  300,  450,  600,  750,  900, 1050, 1200, 1350, 1500, 1650, 1800, 1950, 2100, 2250, 2400
 2401,
*Nset, nset=box-1_right
   2,   3,   5,   8, 619, 620, 621, 622, 623, 624, 625, 626, 627, 628, 629, 630
 631, 632
*Elset, elset=box-1_right
  150,  151,  301,  451,  601,  751,  901, 1051, 1201, 1351, 1501, 1651, 1801, 1951, 2101, 2251
 2550,
*Nset, nset=box-1_white
    5,    6,    7,    8,  307,  308,  309,  310,  311,  312,  313,  314,  315,  316,  317,  318
  319,  320,  321,  322,  323,  324,  325,  326,  327,  328,  329,  330,  331,  332,  333,  334
  335,  336,  337,  338,  339,  340,  341,  342,  343,  344,  345,  346,  347,  348,  349,  350
  351,  352,  353,  354,  355,  356,  357,  358,  359,  360,  361,  362,  363,  364,  365,  366
  367,  368,  369,  370,  371,  372,  373,  374,  375,  376,  377,  378,  379,  380,  381,  382
  383,  384,  385,  386,  387,  388,  389,  390,  391,  392,  393,  394,  395,  396,  397,  398
  399,  400,  401,  402,  403,  404,  405,  406,  407,  408,  409,  410,  411,  412,  413,  414
  415,  416,  417,  418,  419,  420,  421,  422,  423,  424,  425,  426,  427,  428,  429,  430
  431,  432,  433,  434,  435,  436,  437,  438,  439,  440,  441,  442,  443,  444,  445,  446
  447,  448,  449,  450,  451,  452,  453,  454,  455,  456,  457,  458,  459,  460,  461,  462
  463,  464,  465,  466,  467,  468,  469,  470,  471,  472,  473,  474,  475,  476,  477,  478
  479,  480,  481,  482,  483,  484,  485,  486,  487,  488,  489,  490,  491,  492,  493,  494
  495,  496,  497,  498,  499,  500,  501,  502,  503,  504,  505,  506,  507,  508,  509,  510
  511,  512,  513,  514,  515,  516,  517,  518,  519,  520,  521,  522,  523,  524,  525,  526
  527,  528,  529,  530,  531,  532,  533,  534,  535,  536,  537,  538,  539,  540,  541,  542
  543,  544,  545,  546,  547,  548,  549,  550,  551,  552,  553,  554,  555,  556,  557,  558
  559,  560,  561,  562,  563,  564,  565,  566,  567,  568,  569,  570,  571,  572,  573,  574
  575,  576,  577,  578,  579,  580,  581,  582,  583,  584,  585,  586,  587,  588,  589,  590
  591,  592,  593,  594,  595,  596,  597,  598,  599,  600,  601,  602,  603,  604,  605,  606
  607,  608,  609,  610,  611,  612,  613,  614,  615,  616,  617,  618,  619,  620,  621,  622
** ... 131 like lines cut
*Elset, elset=box-1_white, generate
  151,  2400,     1
*Elset, elset=_box-1_topsurface_S3, generate
   1,  150,    1
*Surface, type=ELEMENT, name=box-1_topsurface
_box-1_topsurface_S3, S3
** ----------------------------------------------------------------
** 
** PART INSTANCE: rightwall-1
** 
*System
       -0.03,   -0.383125,          0.,        0.97,   -0.383125,          0.
*Node
   2719,           0.,  0.400000006,           0.
*Nset, nset=rightwall-1-RefPt_
2719, 
*Surface, type=SEGMENTS, name=rightwall-1_leftrigid
START,        -0.03,     0.016875
 LINE,        -0.03, 0.00187500000000002
*Rigid Body, ref node=rightwall-1-RefPt_, analytical surface=rightwall-1_leftrigid
** ----------------------------------------------------------------
** 
** PART INSTANCE: rightwall-2
** 
*System
        0.03,   -0.383125,          0.,        1.03,   -0.383125,          0.
*Node
   2720,           0.,  0.400000006,           0.
*Nset, nset=rightwall-2-RefPt_
2720, 
*Surface, type=SEGMENTS, name=rightwall-2_rightrigid
START,         0.03, 0.00187500000000002
 LINE,         0.03,     0.016875
*Rigid Body, ref node=rightwall-2-RefPt_, analytical surface=rightwall-2_rightrigid
*System
*Nset, nset=Set-1
2719,
*Nset, nset=Set-1
2720,
*******************************************************************
**  Specification Of Material Properties
*******************************************************************
*Section controls, hourglass=enhanced, name=sec_con
**
*Solid Section, elset=box-1_gray1, material=GRAYONE, controls=sec_con
**
**
*Material, Name=GRAYONE
***      mu        = props(1)
***      lambda    = props(2)
***      Gaxn      = props(3)
***      lam0      = props(4)
***      **gray matter 
***      mu_g      = props(5)
***      lambda_g  = props(6)
***      Gctx      = props(7)
***      Aconst    = props(8)
***      charlength = props(9)
*User material,Constants=9
<mu>,<lam>,<Gaxn>,<lam0>,<mu_g>,<lambda_g>,<Gctx>,<Aconst>,
<charlength>
*Depvar
5
*Density
1.0
**
*******************************************************************
**  Specification Of Material Properties
*******************************************************************
**
*Solid Section, elset=box-1_gray2, material=GRAYTWO, controls=sec_con
**
**
*Material, Name=GRAYTWO
***      mu        = props(1)
***      lambda    = props(2)
***      Gaxn      = props(3)
***      lam0      = props(4)
***      **gray matter 
***      mu_g      = props(5)
***      lambda_g  = props(6)
***      Gctx      = props(7)
***      Aconst    = props(8)
***      charlength = props(9)
*User material,Constants=9
<mu>,<lam>,<Gaxn>,<lam0>,<mu_g>,<lambda_g>,<Gctx>,<Aconst>,
<charlength>
*Depvar
5
*Density
1.0
**
*******************************************************************
**  Specification Of Material Properties
*******************************************************************
*Solid Section, elset=box-1_white, material=WHIT, controls=sec_con
**
**
*Material, Name=WHIT
***      mu        = props(1)
***      lambda    = props(2)
***      Gaxn      = props(3)
***      lam0      = props(4)
***      **gray matter 
***      mu_g      = props(5)
***      lambda_g  = props(6)
***      Gctx      = props(7)
***      Aconst    = props(8)
***      charlength = props(9)
*User material,Constants=9
<mu>,<lam>,<Gaxn>,<lam0>,<mu_g>,<lambda_g>,<Gctx>,<Aconst>,
<charlength>
*Depvar
4
*Density
1.0
**
*******************************************************************
** INTERACTION PROPERTIES
*******************************************************************
**
** INTERACTION PROPERTIES
**
*Surface Interaction, name=intFric
*Friction
0.0
*Surface Behavior, pressure-overclosure=hard
**
*Surface Interaction, name=intRough
*Friction, rough
*Surface Behavior, pressure-overclosure=hard
**
*Surface Interaction, name=intNosep
*Friction
0.0
*Surface Behavior, no separation
**
*Surface Interaction, name=intSomeFric
*Friction
10.0
*Surface Behavior, pressure-overclosure=hard
**
** 
** 
** BOUNDARY CONDITIONS
** 
** Name: botfix Type: Symmetry/Antisymmetry/Encastre
*Boundary
box-1_bottom, ENCASTRE
** Name: leftsym Type: Symmetry/Antisymmetry/Encastre
*Boundary
box-1_left, XSYMM
** Name: rightsym Type: Symmetry/Antisymmetry/Encastre
*Boundary
box-1_right, XSYMM
** Name: rigidfix Type: Symmetry/Antisymmetry/Encastre
*Boundary
Set-1, ENCASTRE
**
**
**
** ----------------------------------------------------------------
** 
** STEP: grow
** 
*Step, name=grow, nlgeom=YES
*dynamic, explicit
,<time>
**
*fixed mass scaling, factor=<mass_factor>
** 
*Dsload
box-1_topsurface, vp, <cd>
**
***DLOAD
***box-1_all, VBF, 0.1
**
** INTERACTIONS
** 
** Interaction: Int-1
*Contact Pair, interaction=intSomeFric, mechanical constraint=KINEMATIC, cpset=Int-1
box-1_topsurface, rightwall-1_leftrigid
** Interaction: Int-2
*Contact Pair, interaction=intSomeFric, mechanical constraint=KINEMATIC, cpset=Int-2
box-1_topsurface, rightwall-2_rightrigid
** Interaction: Int-3
*Contact Pair, interaction=intSomeFric, mechanical constraint=KINEMATIC, cpset=Int-3
box-1_topsurface, box-1_topsurface
**
** 
** FIELD OUTPUT: F-Output-1
** 
*Output, field, variable=all, NUMBER INTERVAL=500
** 
** HISTORY OUTPUT: H-Output-1
** 
****Output, history, TIME INTERVAL= 0.1
****NODE OUTPUT,nset=box-1_gray1
****coord
**
*Output, history,TIME INTERVAL= 0.001
*Energy output
ALLIE,ALLKE
*End Step
