****************************************************************
*HEADING
Brain growth  2D
**
**
** Shuolun Wang, august 2019
** 
**      Material parameter 
**      **white matters
**      mu        = props(1)
**      lambda    = props(2)
**      Gaxn      = props(3)
**      lam0      = props(4)
**      **gray matter 
**      mu_g      = props(5)
**      lambda_g  = props(6)
**      Gctx      = props(7)
**      Aconst    = props(8)
***     charlength = props(9)
**
**      State variables
**      statev(1) = growth parameter 
**      statev(2) = coordx     
**      statev(3) = coordy 
**      statev(4) = coordz 
**      statev(5) = curvature
*****************************************************************
**			input parameters
*****************************************************************
*parameter
**
***** white matter 
** shear modulus(Pa)
***mu = 0.1785e4
mu = 0.1e3
**
** mechanical constant(Pa)
***lam = 0.544e4
lam = 0.93e3
**
**
** Axon growth rate (1/hour)
Gaxn = 1.0
**
** Stretch threshold 
lam0 = 1.0
**
**
**  stiffness ratio 
stiffratio = 1.0
**
**** Gray matter
** shear modulus(Pa)
mu_g = stiffratio*mu
**
** mechanical constant(Pa)
lambda_g = stiffratio*lam
**
** rate constant for curvature 
Aconst = 2.0
**
** characterstic length (m)
charlength = 1.25e-3
**
** mass scaling 
mass_factor = 10
**
** viscous pressure coefficient
cd = 100.0
**
**cortex growth rate (1/hour)
Gctx = 1.0
**
** maximum cortex growth 
Gctx_max = 3.0 
** 
** time for growth (h) 
time = (Gctx_max - 1.0)/Gctx
**
**
**
****************************************************************
** 			MODEL DEFINITION
****************************************************************
*Node
      1,           0., 0.0293749999
      2,  0.035374999,           0.
      3, 0.0359999985,           0.
      4,           0., 0.0299999993
      5,           0., 0.0287500005
      6, 0.0347499996,           0.
      7,           0.,           0.
      8, 0.000339754857, 0.0293736458
      9, 0.000679488061, 0.0293695796
     10, 0.00101917796, 0.0293628052
     11, 0.00135880301, 0.0293533225
     12, 0.00169834157, 0.0293411277
     13, 0.00203777198,  0.029326221
     14, 0.00237707235, 0.0293086059
     15, 0.00271622115, 0.0292882789
     16, 0.00305519649, 0.0292652398
     17, 0.00339397672, 0.0292394888
     18, 0.00373253995, 0.0292110257
     19, 0.00407086406, 0.0291798487
     20, 0.0044089267,  0.029145956
** ... 2400 like lines cut
*Element, type=CPE4R
  1,   1,   8, 305,   4
  2,   8,   9, 304, 305
  3,   9,  10, 303, 304
  4,  10,  11, 302, 303
  5,  11,  12, 301, 302
  6,  12,  13, 300, 301
  7,  13,  14, 299, 300
  8,  14,  15, 298, 299
  9,  15,  16, 297, 298
 10,  16,  17, 296, 297
 11,  17,  18, 295, 296
 12,  18,  19, 294, 295
 13,  19,  20, 293, 294
 14,  20,  21, 292, 293
 15,  21,  22, 291, 292
 16,  22,  23, 290, 291
 17,  23,  24, 289, 290
 18,  24,  25, 288, 289
 19,  25,  26, 287, 288
 20,  26,  27, 286, 287
** ... 2307 like lines cut
*Nset, nset=quater-1_centpoint
 7,
*Nset, nset=quater-1_all, generate
    1,  2420,     1
*Elset, elset=quater-1_all, generate
    1,  2327,     1
*Nset, nset=quater-1_white
    5,    6,    7,  306,  307,  308,  309,  310,  311,  312,  313,  314,  315,  316,  317,  318
  319,  320,  321,  322,  323,  324,  325,  326,  327,  328,  329,  330,  331,  332,  333,  334
  335,  336,  337,  338,  339,  340,  341,  342,  343,  344,  345,  346,  347,  348,  349,  350
  351,  352,  353,  354,  355,  356,  357,  358,  359,  360,  361,  362,  363,  364,  365,  366
  367,  368,  369,  370,  371,  372,  373,  374,  375,  376,  377,  378,  379,  380,  381,  382
  383,  384,  385,  386,  387,  388,  389,  390,  391,  392,  393,  394,  395,  396,  397,  398
  399,  400,  401,  402,  403,  404,  405,  406,  407,  408,  409,  410,  411,  412,  413,  414
  415,  416,  417,  418,  419,  420,  421,  422,  423,  424,  425,  426,  427,  428,  429,  430
  431,  432,  433,  434,  435,  436,  437,  438,  439,  440,  441,  442,  443,  444,  445,  446
  447,  448,  449,  450,  451,  452,  453,  454,  455,  456,  457,  458,  459,  460,  461,  462
  463,  464,  465,  466,  467,  468,  469,  470,  471,  472,  473,  474,  475,  476,  477,  478
  479,  480,  481,  482,  483,  484,  485,  486,  487,  488,  489,  490,  491,  492,  493,  494
  495,  496,  497,  498,  499,  500,  501,  502,  503,  504,  505,  506,  507,  508,  509,  510
  511,  512,  513,  514,  515,  516,  517,  518,  519,  520,  521,  522,  523,  524,  525,  526
  527,  528,  529,  530,  531,  532,  533,  534,  535,  536,  537,  538,  539,  540,  541,  542
  543,  544,  545,  546,  547,  548,  549,  550,  551,  552,  553,  554,  555,  556,  557,  558
  559,  560,  561,  562,  563,  564,  565,  566,  567,  568,  569,  570,  571,  572,  573,  574
  575,  576,  577,  578,  579,  580,  581,  582,  583,  584,  585,  586,  587,  588,  589,  590
  591,  592,  593,  594,  595,  596,  597,  598,  599,  600,  601,  602,  603,  604,  605,  606
  607,  608,  609,  610,  611,  612,  613,  614,  615,  616,  617,  618,  619,  620,  621,  622
** ... 113 like lines cut
*Elset, elset=quater-1_white, generate
  301,  2327,     1
*Nset, nset=quater-1_xzface
   2,   3,   6,   7, 469, 470, 471, 472, 473, 474, 475, 476, 477, 478, 479, 480
 481, 482
*Elset, elset=quater-1_xzface
  150,  151,  303,  307,  308,  309,  337,  338,  340,  493,  494,  495,  496,  497,  499, 2265
 2269,
*Nset, nset=quater-1_yzface
   1,   4,   5,   7, 455, 456, 457, 458, 459, 460, 461, 462, 463, 464, 465, 466
 467, 468
*Elset, elset=quater-1_yzface
    1,  300,  307,  327,  329,  331,  335,  365,  477,  487,  489,  490,  491,  492,  639,  649
 2266,
*Nset, nset=quater-1_graybot
   5,   6, 306, 307, 308, 309, 310, 311, 312, 313, 314, 315, 316, 317, 318, 319
 320, 321, 322, 323, 324, 325, 326, 327, 328, 329, 330, 331, 332, 333, 334, 335
 336, 337, 338, 339, 340, 341, 342, 343, 344, 345, 346, 347, 348, 349, 350, 351
 352, 353, 354, 355, 356, 357, 358, 359, 360, 361, 362, 363, 364, 365, 366, 367
 368, 369, 370, 371, 372, 373, 374, 375, 376, 377, 378, 379, 380, 381, 382, 383
 384, 385, 386, 387, 388, 389, 390, 391, 392, 393, 394, 395, 396, 397, 398, 399
 400, 401, 402, 403, 404, 405, 406, 407, 408, 409, 410, 411, 412, 413, 414, 415
 416, 417, 418, 419, 420, 421, 422, 423, 424, 425, 426, 427, 428, 429, 430, 431
 432, 433, 434, 435, 436, 437, 438, 439, 440, 441, 442, 443, 444, 445, 446, 447
 448, 449, 450, 451, 452, 453, 454
*Elset, elset=quater-1_graybot
 151, 152, 153, 154, 155, 156, 157, 158, 159, 160, 161, 162, 163, 164, 165, 166
 167, 168, 169, 170, 171, 172, 173, 174, 175, 176, 177, 178, 179, 180, 181, 182
 183, 184, 185, 186, 187, 188, 189, 190, 191, 192, 193, 194, 195, 196, 197, 198
 199, 200, 201, 202, 203, 204, 205, 206, 207, 208, 209, 210, 211, 212, 213, 214
 215, 216, 217, 218, 219, 220, 221, 222, 223, 224, 225, 226, 227, 228, 229, 230
 231, 232, 233, 234, 235, 236, 237, 238, 239, 240, 241, 242, 243, 244, 245, 246
 247, 248, 249, 250, 251, 252, 253, 254, 255, 256, 257, 258, 259, 260, 261, 262
 263, 264, 265, 266, 267, 268, 269, 270, 271, 272, 273, 274, 275, 276, 277, 278
 279, 280, 281, 282, 283, 284, 285, 286, 287, 288, 289, 290, 291, 292, 293, 294
 295, 296, 297, 298, 299, 300, 301, 310, 311, 312, 313, 314, 315, 317, 318, 319
 321, 322, 324, 325, 326, 336, 354, 367, 369, 370, 372, 374, 375, 376, 377, 379
 380, 381, 382, 384, 385, 386, 388, 389, 390, 392, 393, 394, 395, 396, 397, 398
 400, 401, 402, 403, 404, 405, 406, 407, 408, 409, 410, 411, 412, 413, 414, 415
 416, 417, 418, 419, 420, 421, 422, 424, 425, 426, 427, 428, 429, 430, 431, 432
 433, 434, 435, 436, 437, 438, 439, 441, 442, 443, 444, 445, 446, 447, 448, 449
 450, 451, 452, 453, 454, 455, 457, 458, 459, 460, 461, 462, 463, 466, 467, 468
 469, 470, 471, 472, 474, 475, 478, 481, 482, 483, 485, 498, 499, 501, 502, 506
 509, 510, 513, 517, 519, 526, 528, 554, 559, 581, 586, 601, 603, 605, 607, 612
 615, 617, 619, 623, 625, 629, 631, 636, 640, 647, 649, 793
*Nset, nset=quater-1_graytop
   3,   4, 157, 158, 159, 160, 161, 162, 163, 164, 165, 166, 167, 168, 169, 170
 171, 172, 173, 174, 175, 176, 177, 178, 179, 180, 181, 182, 183, 184, 185, 186
 187, 188, 189, 190, 191, 192, 193, 194, 195, 196, 197, 198, 199, 200, 201, 202
 203, 204, 205, 206, 207, 208, 209, 210, 211, 212, 213, 214, 215, 216, 217, 218
 219, 220, 221, 222, 223, 224, 225, 226, 227, 228, 229, 230, 231, 232, 233, 234
 235, 236, 237, 238, 239, 240, 241, 242, 243, 244, 245, 246, 247, 248, 249, 250
 251, 252, 253, 254, 255, 256, 257, 258, 259, 260, 261, 262, 263, 264, 265, 266
 267, 268, 269, 270, 271, 272, 273, 274, 275, 276, 277, 278, 279, 280, 281, 282
 283, 284, 285, 286, 287, 288, 289, 290, 291, 292, 293, 294, 295, 296, 297, 298
 299, 300, 301, 302, 303, 304, 305
*Elset, elset=quater-1_graytop, generate
   1,  150,    1
*Nset, nset=quater-1_gray2
   1,   2,   5,   6,   8,   9,  10,  11,  12,  13,  14,  15,  16,  17,  18,  19
  20,  21,  22,  23,  24,  25,  26,  27,  28,  29,  30,  31,  32,  33,  34,  35
  36,  37,  38,  39,  40,  41,  42,  43,  44,  45,  46,  47,  48,  49,  50,  51
  52,  53,  54,  55,  56,  57,  58,  59,  60,  61,  62,  63,  64,  65,  66,  67
  68,  69,  70,  71,  72,  73,  74,  75,  76,  77,  78,  79,  80,  81,  82,  83
  84,  85,  86,  87,  88,  89,  90,  91,  92,  93,  94,  95,  96,  97,  98,  99
 100, 101, 102, 103, 104, 105, 106, 107, 108, 109, 110, 111, 112, 113, 114, 115
 116, 117, 118, 119, 120, 121, 122, 123, 124, 125, 126, 127, 128, 129, 130, 131
 132, 133, 134, 135, 136, 137, 138, 139, 140, 141, 142, 143, 144, 145, 146, 147
 148, 149, 150, 151, 152, 153, 154, 155, 156, 306, 307, 308, 309, 310, 311, 312
 313, 314, 315, 316, 317, 318, 319, 320, 321, 322, 323, 324, 325, 326, 327, 328
 329, 330, 331, 332, 333, 334, 335, 336, 337, 338, 339, 340, 341, 342, 343, 344
 345, 346, 347, 348, 349, 350, 351, 352, 353, 354, 355, 356, 357, 358, 359, 360
 361, 362, 363, 364, 365, 366, 367, 368, 369, 370, 371, 372, 373, 374, 375, 376
 377, 378, 379, 380, 381, 382, 383, 384, 385, 386, 387, 388, 389, 390, 391, 392
 393, 394, 395, 396, 397, 398, 399, 400, 401, 402, 403, 404, 405, 406, 407, 408
 409, 410, 411, 412, 413, 414, 415, 416, 417, 418, 419, 420, 421, 422, 423, 424
 425, 426, 427, 428, 429, 430, 431, 432, 433, 434, 435, 436, 437, 438, 439, 440
 441, 442, 443, 444, 445, 446, 447, 448, 449, 450, 451, 452, 453, 454
*Elset, elset=quater-1_gray2, generate
 151,  300,    1
*Nset, nset=quater-1_gray1
   1,   2,   3,   4,   8,   9,  10,  11,  12,  13,  14,  15,  16,  17,  18,  19
  20,  21,  22,  23,  24,  25,  26,  27,  28,  29,  30,  31,  32,  33,  34,  35
  36,  37,  38,  39,  40,  41,  42,  43,  44,  45,  46,  47,  48,  49,  50,  51
  52,  53,  54,  55,  56,  57,  58,  59,  60,  61,  62,  63,  64,  65,  66,  67
  68,  69,  70,  71,  72,  73,  74,  75,  76,  77,  78,  79,  80,  81,  82,  83
  84,  85,  86,  87,  88,  89,  90,  91,  92,  93,  94,  95,  96,  97,  98,  99
 100, 101, 102, 103, 104, 105, 106, 107, 108, 109, 110, 111, 112, 113, 114, 115
 116, 117, 118, 119, 120, 121, 122, 123, 124, 125, 126, 127, 128, 129, 130, 131
 132, 133, 134, 135, 136, 137, 138, 139, 140, 141, 142, 143, 144, 145, 146, 147
 148, 149, 150, 151, 152, 153, 154, 155, 156, 157, 158, 159, 160, 161, 162, 163
 164, 165, 166, 167, 168, 169, 170, 171, 172, 173, 174, 175, 176, 177, 178, 179
 180, 181, 182, 183, 184, 185, 186, 187, 188, 189, 190, 191, 192, 193, 194, 195
 196, 197, 198, 199, 200, 201, 202, 203, 204, 205, 206, 207, 208, 209, 210, 211
 212, 213, 214, 215, 216, 217, 218, 219, 220, 221, 222, 223, 224, 225, 226, 227
 228, 229, 230, 231, 232, 233, 234, 235, 236, 237, 238, 239, 240, 241, 242, 243
 244, 245, 246, 247, 248, 249, 250, 251, 252, 253, 254, 255, 256, 257, 258, 259
 260, 261, 262, 263, 264, 265, 266, 267, 268, 269, 270, 271, 272, 273, 274, 275
 276, 277, 278, 279, 280, 281, 282, 283, 284, 285, 286, 287, 288, 289, 290, 291
 292, 293, 294, 295, 296, 297, 298, 299, 300, 301, 302, 303, 304, 305
*Elset, elset=quater-1_gray1, generate
   1,  150,    1
*Elset, elset=_quater-1_outsurface_S3, generate
   1,  150,    1
*Surface, type=ELEMENT, name=quater-1_outsurface
_quater-1_outsurface_S3, S3
** ----------------------------------------------------------------
** 
** PART INSTANCE: verticalwall-1
** 
*System
          0.,         0.7,          0.,          1.,         0.7,          0.
*Node
   2421,           0.,   1.29999995,           0.
*Nset, nset=verticalwall-1-RefPt_
2421, 
*Surface, type=SEGMENTS, name=verticalwall-1_verticalrigid
START,           0.,           2.
 LINE,           0.,           0.
*Rigid Body, ref node=verticalwall-1-RefPt_, analytical surface=verticalwall-1_verticalrigid
** ----------------------------------------------------------------
** 
** PART INSTANCE: verticalwall-2
** 
*System
         0.7,          0.,          0.,         0.7,         -1.,          0.
*Node
   2422,           0.,   1.29999995,           0.
*Nset, nset=verticalwall-2-RefPt_
2422, 
*Surface, type=SEGMENTS, name=verticalwall-2_horizontalrigid
START,           0.,           0.
 LINE,           2.,           0.
*Rigid Body, ref node=verticalwall-2-RefPt_, analytical surface=verticalwall-2_horizontalrigid
*System
*Nset, nset=Set-1
2421,
*Nset, nset=Set-2
2422,
*******************************************************************
**  Specification Of Material Properties
*******************************************************************
*Section controls, hourglass=enhanced, name=sec_con
*SECTION CONTROLS, NAME = Hourglass, HOURGLASS = STIFFNESS, KINEMATIC SPLIT = CENTROID
**
*Solid Section, elset=quater-1_gray1, material=GRAYONE, controls=sec_con
**
**
*Material, Name=GRAYONE
***      mu        = props(1)
***      lambda    = props(2)
***      Gaxn      = props(3)
***      lam0      = props(4)
***      **gray matter 
***      mu_g      = props(5)
***      lambda_g  = props(6)
***      Gctx      = props(7)
***      Aconst    = props(8)
***      charlength = props(9)
*User material,Constants=9
<mu>,<lam>,<Gaxn>,<lam0>,<mu_g>,<lambda_g>,<Gctx>,<Aconst>,
<charlength>
*Depvar
5
*Density
1.0
**
*******************************************************************
**  Specification Of Material Properties
*******************************************************************
**
*Solid Section, elset=quater-1_gray2, material=GRAYTWO, controls=sec_con
**
**
*Material, Name=GRAYTWO
***      mu        = props(1)
***      lambda    = props(2)
***      Gaxn      = props(3)
***      lam0      = props(4)
***      **gray matter 
***      mu_g      = props(5)
***      lambda_g  = props(6)
***      Gctx      = props(7)
***      Aconst    = props(8)
***      charlength = props(9)
*User material,Constants=9
<mu>,<lam>,<Gaxn>,<lam0>,<mu_g>,<lambda_g>,<Gctx>,<Aconst>,
<charlength>
*Depvar
5
*Density
1.0
**
*******************************************************************
**  Specification Of Material Properties
*******************************************************************
*Solid Section, elset=quater-1_white, material=WHIT, controls=Hourglass
**
**
*Material, Name=WHIT
***      mu        = props(1)
***      lambda    = props(2)
***      Gaxn      = props(3)
***      lam0      = props(4)
***      **gray matter 
***      mu_g      = props(5)
***      lambda_g  = props(6)
***      Gctx      = props(7)
***      Aconst    = props(8)
***      charlength = props(9)
*User material,Constants=9
<mu>,<lam>,<Gaxn>,<lam0>,<mu_g>,<lambda_g>,<Gctx>,<Aconst>,
<charlength>
*Depvar
1
*Density
1.0
**
** initial condition 
*INITIAL CONDITIONS,TYPE=SOLUTION,USER
**
** INTERACTION PROPERTIES
**
*Surface Interaction, name=intFric
*Friction
0.0
*Surface Behavior, pressure-overclosure=hard
**
*Surface Interaction, name=intRough
*Friction, rough
*Surface Behavior, pressure-overclosure=hard
**
*Surface Interaction, name=intNosep
*Friction
0.0
*Surface Behavior, no separation
**
*Surface Interaction, name=intSomeFric
*Friction
10.0
*Surface Behavior, pressure-overclosure=hard
**
**
** 
** BOUNDARY CONDITIONS
** 
** Name: centfix Type: Symmetry/Antisymmetry/Encastre
*Boundary
quater-1_centpoint, ENCASTRE
** Name: rigidfix1 Type: Symmetry/Antisymmetry/Encastre
*Boundary
Set-1, ENCASTRE
** Name: rigidfix2 Type: Symmetry/Antisymmetry/Encastre
*Boundary
Set-2, ENCASTRE
** Name: xzsym Type: Symmetry/Antisymmetry/Encastre
*Boundary
quater-1_xzface, YSYMM
** Name: yzsym Type: Symmetry/Antisymmetry/Encastre
*Boundary
quater-1_yzface, XSYMM
** ----------------------------------------------------------------
** 
** STEP: grow
** 
*Step, name=grow, nlgeom=YES
*dynamic, explicit
,<time>
**
*fixed mass scaling, factor=<mass_factor>
**
** 
*Dsload
quater-1_outsurface, vp, <cd>
**
** INTERACTIONS
**
*Contact Pair, interaction=intSomeFric, , mechanical constraint=kinematic
quater-1_outsurface,
**
*Contact Pair, interaction=intSomeFric, , mechanical constraint=kinematic
verticalwall-1_verticalrigid , quater-1_outsurface
**
*Contact Pair, interaction=intSomeFric, , mechanical constraint=kinematic
verticalwall-2_horizontalrigid , quater-1_outsurface
**
** 
**
** FIELD OUTPUT: F-Output-1
** 
*Output, field, variable=all, NUMBER INTERVAL=500
**
** HISTORY OUTPUT: H-Output-1
** 
*Output, history,TIME INTERVAL= 0.001
*Energy output
ALLIE,ALLKE
*End Step
