****************************************************************
*HEADING
Brain growth  3D
**
**
** Shuolun Wang, august 2019
** 
**      Material parameter 
**      **white matters
**      mu        = props(1)
**      lambda    = props(2)
**      Gaxn      = props(3)
**      lam0      = props(4)
**      **gray matter 
**      mu_g      = props(5)
**      lambda_g  = props(6)
**      Gctx      = props(7)
**      Aconst    = props(8)
***     charlength = props(9)
**
**      State variables
**      statev(1) = growth parameter 
**      statev(2) = coordx     
**      statev(3) = coordy 
**      statev(4) = coordz 
**      statev(5) = mean curvature
**      statev(6) = SI index         
*****************************************************************
**			input parameters
*****************************************************************
*parameter
**
***** white matter 
** shear modulus(Pa)
***mu = 0.1785e4
mu = 0.1e3
**
** mechanical constant(Pa)
***lam = 0.544e4
lam = 0.93e3
**
**
** Axon growth rate (1/h)
**Gaxn = 0.08
Gaxn = 8.0
**
** Stretch threshold 
lam0 = 1.0
**
**
**  stiffness ratio 
stiffratio = 10.0
**
**** Gray matter
** shear modulus(Pa)
mu_g = stiffratio*mu
**
** mechanical constant(Pa)
lambda_g = stiffratio*lam
**
**
**
** rate constant for curvature 
Aconst = 0.0
**
** characterstic length (m)
charlength = 1.0e-3
**
** mass scaling 
mass_factor = 1.e2
**
** viscous pressure coefficient
cd = 100.0
**
**cortex growth rate (1/hour)
Gctx = 1.0
**
** maximum cortex growth 
Gctx_max = 3.0 
** 
** time for growth (h) 
time = (Gctx_max - 1.0)/Gctx
**
**
**
**
**
**
****************************************************************
** 			MODEL DEFINITION
****************************************************************
*System
          0.,        0.04,        0.02,          1.,        0.04,        0.02
          0.,0.0400000000000001,        1.02
*Node
      1, 0.0599999987, 0.0195000004, 0.0299999993
      2, 0.0599999987, 0.0195000004,           0.
      3, 0.0599999987, 0.0199999996,           0.
      4, 0.0599999987, 0.0199999996, 0.0299999993
      5, 0.0299999993, 0.0195000004,           0.
      6, 0.0299999993, 0.0199999996,           0.
      7, 0.0299999993, 0.0199999996, 0.0299999993
      8, 0.0299999993, 0.0195000004, 0.0299999993
      9, 0.0599999987, 0.0189999994, 0.0299999993
     10, 0.0599999987, 0.0189999994,           0.
     11, 0.0299999993, 0.0189999994, 0.0299999993
     12, 0.0299999993, 0.0189999994,           0.
     13, 0.0599999987, 0.00999999978, 0.0299999993
     14, 0.0599999987, 0.00999999978,           0.
     15, 0.0299999993, 0.00999999978, 0.0299999993
     16, 0.0299999993, 0.00999999978,           0.
     17, 0.0599999987, 0.0195000004, 0.0292499997
     18, 0.0599999987, 0.0195000004,       0.0285
     19, 0.0599999987, 0.0195000004, 0.0277500004
     20, 0.0599999987, 0.0195000004, 0.0270000007
** ... 11747 like lines cut
*Element, type=C3D8R
   1,  250,  653, 2174,  173,    1,   17,   94,    4
   2,  653,  654, 2175, 2174,   17,   18,   93,   94
   3,  654,  655, 2176, 2175,   18,   19,   92,   93
   4,  655,  656, 2177, 2176,   19,   20,   91,   92
   5,  656,  657, 2178, 2177,   20,   21,   90,   91
   6,  657,  658, 2179, 2178,   21,   22,   89,   90
   7,  658,  659, 2180, 2179,   22,   23,   88,   89
   8,  659,  660, 2181, 2180,   23,   24,   87,   88
   9,  660,  661, 2182, 2181,   24,   25,   86,   87
  10,  661,  662, 2183, 2182,   25,   26,   85,   86
  11,  662,  663, 2184, 2183,   26,   27,   84,   85
  12,  663,  664, 2185, 2184,   27,   28,   83,   84
  13,  664,  665, 2186, 2185,   28,   29,   82,   83
  14,  665,  666, 2187, 2186,   29,   30,   81,   82
  15,  666,  667, 2188, 2187,   30,   31,   80,   81
  16,  667,  668, 2189, 2188,   31,   32,   79,   80
  17,  668,  669, 2190, 2189,   32,   33,   78,   79
  18,  669,  670, 2191, 2190,   33,   34,   77,   78
  19,  670,  671, 2192, 2191,   34,   35,   76,   77
  20,  671,  672, 2193, 2192,   35,   36,   75,   76
** ... 9580 like lines cut
*Nset, nset=block-1_all, generate
     1,  11767,      1
*Elset, elset=block-1_all, generate
    1,  9600,     1
*Nset, nset=block-1_top
    3,    4,    6,    7,   56,   57,   58,   59,   60,   61,   62,   63,   64,   65,   66,   67
   68,   69,   70,   71,   72,   73,   74,   75,   76,   77,   78,   79,   80,   81,   82,   83
   84,   85,   86,   87,   88,   89,   90,   91,   92,   93,   94,  134,  135,  136,  137,  138
  139,  140,  141,  142,  143,  144,  145,  146,  147,  148,  149,  150,  151,  152,  153,  154
  155,  156,  157,  158,  159,  160,  161,  162,  163,  164,  165,  166,  167,  168,  169,  170
  171,  172,  173,  174,  175,  176,  177,  178,  179,  180,  181,  182,  183,  184,  185,  186
  187,  188,  189,  190,  191,  192,  193,  194,  195,  196,  197,  198,  199,  200,  201,  202
  203,  204,  205,  206,  207,  208,  209,  210,  211,  251,  252,  253,  254,  255,  256,  257
  258,  259,  260,  261,  262,  263,  264,  265,  266,  267,  268,  269,  270,  271,  272,  273
  274,  275,  276,  277,  278,  279,  280,  281,  282,  283,  284,  285,  286,  287,  288,  289
 2174, 2175, 2176, 2177, 2178, 2179, 2180, 2181, 2182, 2183, 2184, 2185, 2186, 2187, 2188, 2189
 2190, 2191, 2192, 2193, 2194, 2195, 2196, 2197, 2198, 2199, 2200, 2201, 2202, 2203, 2204, 2205
 2206, 2207, 2208, 2209, 2210, 2211, 2212, 2213, 2214, 2215, 2216, 2217, 2218, 2219, 2220, 2221
 2222, 2223, 2224, 2225, 2226, 2227, 2228, 2229, 2230, 2231, 2232, 2233, 2234, 2235, 2236, 2237
 2238, 2239, 2240, 2241, 2242, 2243, 2244, 2245, 2246, 2247, 2248, 2249, 2250, 2251, 2252, 2253
 2254, 2255, 2256, 2257, 2258, 2259, 2260, 2261, 2262, 2263, 2264, 2265, 2266, 2267, 2268, 2269
 2270, 2271, 2272, 2273, 2274, 2275, 2276, 2277, 2278, 2279, 2280, 2281, 2282, 2283, 2284, 2285
 2286, 2287, 2288, 2289, 2290, 2291, 2292, 2293, 2294, 2295, 2296, 2297, 2298, 2299, 2300, 2301
 2302, 2303, 2304, 2305, 2306, 2307, 2308, 2309, 2310, 2311, 2312, 2313, 2314, 2315, 2316, 2317
 2318, 2319, 2320, 2321, 2322, 2323, 2324, 2325, 2326, 2327, 2328, 2329, 2330, 2331, 2332, 2333
** ... 86 like lines cut
*Elset, elset=block-1_top, generate
    1,  1600,     1
*Nset, nset=block-1_bot
   13,   14,   15,   16,  488,  489,  490,  491,  492,  493,  494,  495,  496,  497,  498,  499
  500,  501,  502,  503,  504,  505,  506,  507,  508,  509,  510,  511,  512,  513,  514,  515
  516,  517,  518,  519,  520,  521,  522,  523,  524,  525,  526,  533,  534,  535,  536,  537
  538,  539,  540,  541,  542,  543,  544,  545,  546,  547,  548,  549,  550,  551,  552,  553
  554,  555,  556,  557,  558,  559,  560,  561,  562,  563,  564,  565,  566,  567,  568,  569
  570,  571,  575,  576,  577,  578,  579,  580,  581,  582,  583,  584,  585,  586,  587,  588
  589,  590,  591,  592,  593,  594,  595,  596,  597,  598,  599,  600,  601,  602,  603,  604
  605,  606,  607,  608,  609,  610,  611,  612,  613,  614,  615,  616,  617,  618,  619,  620
  621,  622,  623,  624,  625,  626,  627,  628,  629,  630,  631,  632,  633,  634,  635,  636
  637,  638,  639,  640,  641,  642,  643,  644,  645,  646,  647,  648,  649,  650,  651,  652
 5684, 5685, 5686, 5687, 5688, 5689, 5690, 5691, 5692, 5693, 5694, 5695, 5696, 5697, 5698, 5699
 5700, 5701, 5702, 5703, 5704, 5705, 5706, 5707, 5708, 5709, 5710, 5711, 5712, 5713, 5714, 5715
 5716, 5717, 5718, 5719, 5720, 5721, 5722, 5723, 5724, 5725, 5726, 5727, 5728, 5729, 5730, 5731
 5732, 5733, 5734, 5735, 5736, 5737, 5738, 5739, 5740, 5741, 5742, 5743, 5744, 5745, 5746, 5747
 5748, 5749, 5750, 5751, 5752, 5753, 5754, 5755, 5756, 5757, 5758, 5759, 5760, 5761, 5762, 5763
 5764, 5765, 5766, 5767, 5768, 5769, 5770, 5771, 5772, 5773, 5774, 5775, 5776, 5777, 5778, 5779
 5780, 5781, 5782, 5783, 5784, 5785, 5786, 5787, 5788, 5789, 5790, 5791, 5792, 5793, 5794, 5795
 5796, 5797, 5798, 5799, 5800, 5801, 5802, 5803, 5804, 5805, 5806, 5807, 5808, 5809, 5810, 5811
 5812, 5813, 5814, 5815, 5816, 5817, 5818, 5819, 5820, 5821, 5822, 5823, 5824, 5825, 5826, 5827
 5828, 5829, 5830, 5831, 5832, 5833, 5834, 5835, 5836, 5837, 5838, 5839, 5840, 5841, 5842, 5843
** ... 86 like lines cut
*Elset, elset=block-1_bot
 3321, 3322, 3323, 3324, 3325, 3326, 3327, 3328, 3329, 3330, 3331, 3332, 3333, 3334, 3335, 3336
 3337, 3338, 3339, 3340, 3341, 3342, 3343, 3344, 3345, 3346, 3347, 3348, 3349, 3350, 3351, 3352
 3353, 3354, 3355, 3356, 3357, 3358, 3359, 3360, 3481, 3482, 3483, 3484, 3485, 3486, 3487, 3488
 3489, 3490, 3491, 3492, 3493, 3494, 3495, 3496, 3497, 3498, 3499, 3500, 3501, 3502, 3503, 3504
 3505, 3506, 3507, 3508, 3509, 3510, 3511, 3512, 3513, 3514, 3515, 3516, 3517, 3518, 3519, 3520
 3641, 3642, 3643, 3644, 3645, 3646, 3647, 3648, 3649, 3650, 3651, 3652, 3653, 3654, 3655, 3656
 3657, 3658, 3659, 3660, 3661, 3662, 3663, 3664, 3665, 3666, 3667, 3668, 3669, 3670, 3671, 3672
 3673, 3674, 3675, 3676, 3677, 3678, 3679, 3680, 3801, 3802, 3803, 3804, 3805, 3806, 3807, 3808
 3809, 3810, 3811, 3812, 3813, 3814, 3815, 3816, 3817, 3818, 3819, 3820, 3821, 3822, 3823, 3824
 3825, 3826, 3827, 3828, 3829, 3830, 3831, 3832, 3833, 3834, 3835, 3836, 3837, 3838, 3839, 3840
 3961, 3962, 3963, 3964, 3965, 3966, 3967, 3968, 3969, 3970, 3971, 3972, 3973, 3974, 3975, 3976
 3977, 3978, 3979, 3980, 3981, 3982, 3983, 3984, 3985, 3986, 3987, 3988, 3989, 3990, 3991, 3992
 3993, 3994, 3995, 3996, 3997, 3998, 3999, 4000, 4121, 4122, 4123, 4124, 4125, 4126, 4127, 4128
 4129, 4130, 4131, 4132, 4133, 4134, 4135, 4136, 4137, 4138, 4139, 4140, 4141, 4142, 4143, 4144
 4145, 4146, 4147, 4148, 4149, 4150, 4151, 4152, 4153, 4154, 4155, 4156, 4157, 4158, 4159, 4160
 4281, 4282, 4283, 4284, 4285, 4286, 4287, 4288, 4289, 4290, 4291, 4292, 4293, 4294, 4295, 4296
 4297, 4298, 4299, 4300, 4301, 4302, 4303, 4304, 4305, 4306, 4307, 4308, 4309, 4310, 4311, 4312
 4313, 4314, 4315, 4316, 4317, 4318, 4319, 4320, 4441, 4442, 4443, 4444, 4445, 4446, 4447, 4448
 4449, 4450, 4451, 4452, 4453, 4454, 4455, 4456, 4457, 4458, 4459, 4460, 4461, 4462, 4463, 4464
 4465, 4466, 4467, 4468, 4469, 4470, 4471, 4472, 4473, 4474, 4475, 4476, 4477, 4478, 4479, 4480
** ... 80 like lines cut
*Nset, nset=block-1_YZface
    1,    2,    3,    4,    5,    6,    7,    8,    9,   10,   11,   12,   13,   14,   15,   16
   17,   18,   19,   20,   21,   22,   23,   24,   25,   26,   27,   28,   29,   30,   31,   32
   33,   34,   35,   36,   37,   38,   39,   40,   41,   42,   43,   44,   45,   46,   47,   48
   49,   50,   51,   52,   53,   54,   55,   56,   57,   58,   59,   60,   61,   62,   63,   64
   65,   66,   67,   68,   69,   70,   71,   72,   73,   74,   75,   76,   77,   78,   79,   80
   81,   82,   83,   84,   85,   86,   87,   88,   89,   90,   91,   92,   93,   94,   95,   96
   97,   98,   99,  100,  101,  102,  103,  104,  105,  106,  107,  108,  109,  110,  111,  112
  113,  114,  115,  116,  117,  118,  119,  120,  121,  122,  123,  124,  125,  126,  127,  128
  129,  130,  131,  132,  133,  134,  135,  136,  137,  138,  139,  140,  141,  142,  143,  144
  145,  146,  147,  148,  149,  150,  151,  152,  153,  154,  155,  156,  157,  158,  159,  160
  161,  162,  163,  164,  165,  166,  167,  168,  169,  170,  171,  172,  329,  330,  331,  332
  333,  334,  335,  336,  337,  338,  339,  340,  341,  342,  343,  344,  345,  346,  347,  348
  349,  350,  351,  352,  353,  354,  355,  356,  357,  358,  359,  360,  361,  362,  363,  364
  365,  366,  367,  368,  369,  370,  371,  372,  373,  374,  375,  376,  377,  378,  379,  380
  381,  382,  383,  384,  385,  386,  387,  388,  389,  390,  391,  392,  393,  394,  395,  396
  397,  398,  399,  400,  401,  402,  403,  404,  405,  406,  485,  486,  487,  488,  489,  490
  491,  492,  493,  494,  495,  496,  497,  498,  499,  500,  501,  502,  503,  504,  505,  506
  507,  508,  509,  510,  511,  512,  513,  514,  515,  516,  517,  518,  519,  520,  521,  522
  523,  524,  525,  526,  527,  528,  529,  530,  531,  532,  533,  534,  535,  536,  537,  538
  539,  540,  541,  542,  543,  544,  545,  546,  547,  548,  549,  550,  551,  552,  553,  554
** ... 16 like lines cut
*Elset, elset=block-1_YZface
    1,    2,    3,    4,    5,    6,    7,    8,    9,   10,   11,   12,   13,   14,   15,   16
   17,   18,   19,   20,   21,   22,   23,   24,   25,   26,   27,   28,   29,   30,   31,   32
   33,   34,   35,   36,   37,   38,   39,   40, 1561, 1562, 1563, 1564, 1565, 1566, 1567, 1568
 1569, 1570, 1571, 1572, 1573, 1574, 1575, 1576, 1577, 1578, 1579, 1580, 1581, 1582, 1583, 1584
 1585, 1586, 1587, 1588, 1589, 1590, 1591, 1592, 1593, 1594, 1595, 1596, 1597, 1598, 1599, 1600
 1601, 1602, 1603, 1604, 1605, 1606, 1607, 1608, 1609, 1610, 1611, 1612, 1613, 1614, 1615, 1616
 1617, 1618, 1619, 1620, 1621, 1622, 1623, 1624, 1625, 1626, 1627, 1628, 1629, 1630, 1631, 1632
 1633, 1634, 1635, 1636, 1637, 1638, 1639, 1640, 3161, 3162, 3163, 3164, 3165, 3166, 3167, 3168
 3169, 3170, 3171, 3172, 3173, 3174, 3175, 3176, 3177, 3178, 3179, 3180, 3181, 3182, 3183, 3184
 3185, 3186, 3187, 3188, 3189, 3190, 3191, 3192, 3193, 3194, 3195, 3196, 3197, 3198, 3199, 3200
 3201, 3202, 3203, 3204, 3205, 3206, 3207, 3208, 3209, 3210, 3211, 3212, 3213, 3214, 3215, 3216
 3217, 3218, 3219, 3220, 3221, 3222, 3223, 3224, 3225, 3226, 3227, 3228, 3229, 3230, 3231, 3232
 3233, 3234, 3235, 3236, 3237, 3238, 3239, 3240, 3241, 3242, 3243, 3244, 3245, 3246, 3247, 3248
 3249, 3250, 3251, 3252, 3253, 3254, 3255, 3256, 3257, 3258, 3259, 3260, 3261, 3262, 3263, 3264
 3265, 3266, 3267, 3268, 3269, 3270, 3271, 3272, 3273, 3274, 3275, 3276, 3277, 3278, 3279, 3280
 3281, 3282, 3283, 3284, 3285, 3286, 3287, 3288, 3289, 3290, 3291, 3292, 3293, 3294, 3295, 3296
 3297, 3298, 3299, 3300, 3301, 3302, 3303, 3304, 3305, 3306, 3307, 3308, 3309, 3310, 3311, 3312
 3313, 3314, 3315, 3316, 3317, 3318, 3319, 3320, 3321, 3322, 3323, 3324, 3325, 3326, 3327, 3328
 3329, 3330, 3331, 3332, 3333, 3334, 3335, 3336, 3337, 3338, 3339, 3340, 3341, 3342, 3343, 3344
 3345, 3346, 3347, 3348, 3349, 3350, 3351, 3352, 3353, 3354, 3355, 3356, 3357, 3358, 3359, 3360
** ... 10 like lines cut
*Nset, nset=block-1_XYface
    1,    2,    3,    4,    5,    6,    7,    8,    9,   10,   11,   12,   13,   14,   15,   16
  173,  174,  175,  176,  177,  178,  179,  180,  181,  182,  183,  184,  185,  186,  187,  188
  189,  190,  191,  192,  193,  194,  195,  196,  197,  198,  199,  200,  201,  202,  203,  204
  205,  206,  207,  208,  209,  210,  211,  212,  213,  214,  215,  216,  217,  218,  219,  220
  221,  222,  223,  224,  225,  226,  227,  228,  229,  230,  231,  232,  233,  234,  235,  236
  237,  238,  239,  240,  241,  242,  243,  244,  245,  246,  247,  248,  249,  250,  251,  252
  253,  254,  255,  256,  257,  258,  259,  260,  261,  262,  263,  264,  265,  266,  267,  268
  269,  270,  271,  272,  273,  274,  275,  276,  277,  278,  279,  280,  281,  282,  283,  284
  285,  286,  287,  288,  289,  290,  291,  292,  293,  294,  295,  296,  297,  298,  299,  300
  301,  302,  303,  304,  305,  306,  307,  308,  309,  310,  311,  312,  313,  314,  315,  316
  317,  318,  319,  320,  321,  322,  323,  324,  325,  326,  327,  328,  407,  408,  409,  410
  411,  412,  413,  414,  415,  416,  417,  418,  419,  420,  421,  422,  423,  424,  425,  426
  427,  428,  429,  430,  431,  432,  433,  434,  435,  436,  437,  438,  439,  440,  441,  442
  443,  444,  445,  446,  447,  448,  449,  450,  451,  452,  453,  454,  455,  456,  457,  458
  459,  460,  461,  462,  463,  464,  465,  466,  467,  468,  469,  470,  471,  472,  473,  474
  475,  476,  477,  478,  479,  480,  481,  482,  483,  484,  485,  486,  487,  527,  528,  529
  530,  531,  532,  572,  573,  574,  575,  576,  577,  578,  579,  580,  581,  582,  583,  584
  585,  586,  587,  588,  589,  590,  591,  592,  593,  594,  595,  596,  597,  598,  599,  600
  601,  602,  603,  604,  605,  606,  607,  608,  609,  610,  611,  612,  613,  614,  615,  616
  617,  618,  619,  620,  621,  622,  623,  624,  625,  626,  627,  628,  629,  630,  631,  632
** ... 16 like lines cut
*Elset, elset=block-1_XYface
    1,   40,   41,   80,   81,  120,  121,  160,  161,  200,  201,  240,  241,  280,  281,  320
  321,  360,  361,  400,  401,  440,  441,  480,  481,  520,  521,  560,  561,  600,  601,  640
  641,  680,  681,  720,  721,  760,  761,  800,  801,  840,  841,  880,  881,  920,  921,  960
  961, 1000, 1001, 1040, 1041, 1080, 1081, 1120, 1121, 1160, 1161, 1200, 1201, 1240, 1241, 1280
 1281, 1320, 1321, 1360, 1361, 1400, 1401, 1440, 1441, 1480, 1481, 1520, 1521, 1560, 1561, 1600
 1601, 1640, 1641, 1680, 1681, 1720, 1721, 1760, 1761, 1800, 1801, 1840, 1841, 1880, 1881, 1920
 1921, 1960, 1961, 2000, 2001, 2040, 2041, 2080, 2081, 2120, 2121, 2160, 2161, 2200, 2201, 2240
 2241, 2280, 2281, 2320, 2321, 2360, 2361, 2400, 2401, 2440, 2441, 2480, 2481, 2520, 2521, 2560
 2561, 2600, 2601, 2640, 2641, 2680, 2681, 2720, 2721, 2760, 2761, 2800, 2801, 2840, 2841, 2880
 2881, 2920, 2921, 2960, 2961, 3000, 3001, 3040, 3041, 3080, 3081, 3120, 3121, 3160, 3161, 3200
 3201, 3240, 3241, 3280, 3281, 3320, 3321, 3360, 3361, 3400, 3401, 3440, 3441, 3480, 3481, 3520
 3521, 3560, 3561, 3600, 3601, 3640, 3641, 3680, 3681, 3720, 3721, 3760, 3761, 3800, 3801, 3840
 3841, 3880, 3881, 3920, 3921, 3960, 3961, 4000, 4001, 4040, 4041, 4080, 4081, 4120, 4121, 4160
 4161, 4200, 4201, 4240, 4241, 4280, 4281, 4320, 4321, 4360, 4361, 4400, 4401, 4440, 4441, 4480
 4481, 4520, 4521, 4560, 4561, 4600, 4601, 4640, 4641, 4680, 4681, 4720, 4721, 4760, 4761, 4800
 4801, 4840, 4841, 4880, 4881, 4920, 4921, 4960, 4961, 5000, 5001, 5040, 5041, 5080, 5081, 5120
 5121, 5160, 5161, 5200, 5201, 5240, 5241, 5280, 5281, 5320, 5321, 5360, 5361, 5400, 5401, 5440
 5441, 5480, 5481, 5520, 5521, 5560, 5561, 5600, 5601, 5640, 5641, 5680, 5681, 5720, 5721, 5760
 5761, 5800, 5801, 5840, 5841, 5880, 5881, 5920, 5921, 5960, 5961, 6000, 6001, 6040, 6041, 6080
 6081, 6120, 6121, 6160, 6161, 6200, 6201, 6240, 6241, 6280, 6281, 6320, 6321, 6360, 6361, 6400
** ... 10 like lines cut
*Nset, nset=block-1_white
     9,    10,    11,    12,    13,    14,    15,    16,   329,   330,   331,   332,   333,   334,   335,   336
   337,   338,   339,   340,   341,   342,   343,   344,   345,   346,   347,   348,   349,   350,   351,   352
   353,   354,   355,   356,   357,   358,   359,   360,   361,   362,   363,   364,   365,   366,   367,   368
   369,   370,   371,   372,   373,   374,   375,   376,   377,   378,   379,   380,   381,   382,   383,   384
   385,   386,   387,   388,   389,   390,   391,   392,   393,   394,   395,   396,   397,   398,   399,   400
   401,   402,   403,   404,   405,   406,   407,   408,   409,   410,   411,   412,   413,   414,   415,   416
   417,   418,   419,   420,   421,   422,   423,   424,   425,   426,   427,   428,   429,   430,   431,   432
   433,   434,   435,   436,   437,   438,   439,   440,   441,   442,   443,   444,   445,   446,   447,   448
   449,   450,   451,   452,   453,   454,   455,   456,   457,   458,   459,   460,   461,   462,   463,   464
   465,   466,   467,   468,   469,   470,   471,   472,   473,   474,   475,   476,   477,   478,   479,   480
   481,   482,   483,   484,   485,   486,   487,   488,   489,   490,   491,   492,   493,   494,   495,   496
   497,   498,   499,   500,   501,   502,   503,   504,   505,   506,   507,   508,   509,   510,   511,   512
   513,   514,   515,   516,   517,   518,   519,   520,   521,   522,   523,   524,   525,   526,   527,   528
   529,   530,   531,   532,   533,   534,   535,   536,   537,   538,   539,   540,   541,   542,   543,   544
   545,   546,   547,   548,   549,   550,   551,   552,   553,   554,   555,   556,   557,   558,   559,   560
   561,   562,   563,   564,   565,   566,   567,   568,   569,   570,   571,   572,   573,   574,   575,   576
   577,   578,   579,   580,   581,   582,   583,   584,   585,   586,   587,   588,   589,   590,   591,   592
   593,   594,   595,   596,   597,   598,   599,   600,   601,   602,   603,   604,   605,   606,   607,   608
   609,   610,   611,   612,   613,   614,   615,   616,   617,   618,   619,   620,   621,   622,   623,   624
   625,   626,   627,   628,   629,   630,   631,   632,   633,   634,   635,   636,   637,   638,   639,   640
** ... 506 like lines cut
*Elset, elset=block-1_white, generate
 3201,  9600,     1
*Nset, nset=block-1_gray1
    1,    2,    3,    4,    5,    6,    7,    8,   17,   18,   19,   20,   21,   22,   23,   24
   25,   26,   27,   28,   29,   30,   31,   32,   33,   34,   35,   36,   37,   38,   39,   40
   41,   42,   43,   44,   45,   46,   47,   48,   49,   50,   51,   52,   53,   54,   55,   56
   57,   58,   59,   60,   61,   62,   63,   64,   65,   66,   67,   68,   69,   70,   71,   72
   73,   74,   75,   76,   77,   78,   79,   80,   81,   82,   83,   84,   85,   86,   87,   88
   89,   90,   91,   92,   93,   94,   95,   96,   97,   98,   99,  100,  101,  102,  103,  104
  105,  106,  107,  108,  109,  110,  111,  112,  113,  114,  115,  116,  117,  118,  119,  120
  121,  122,  123,  124,  125,  126,  127,  128,  129,  130,  131,  132,  133,  134,  135,  136
  137,  138,  139,  140,  141,  142,  143,  144,  145,  146,  147,  148,  149,  150,  151,  152
  153,  154,  155,  156,  157,  158,  159,  160,  161,  162,  163,  164,  165,  166,  167,  168
  169,  170,  171,  172,  173,  174,  175,  176,  177,  178,  179,  180,  181,  182,  183,  184
  185,  186,  187,  188,  189,  190,  191,  192,  193,  194,  195,  196,  197,  198,  199,  200
  201,  202,  203,  204,  205,  206,  207,  208,  209,  210,  211,  212,  213,  214,  215,  216
  217,  218,  219,  220,  221,  222,  223,  224,  225,  226,  227,  228,  229,  230,  231,  232
  233,  234,  235,  236,  237,  238,  239,  240,  241,  242,  243,  244,  245,  246,  247,  248
  249,  250,  251,  252,  253,  254,  255,  256,  257,  258,  259,  260,  261,  262,  263,  264
  265,  266,  267,  268,  269,  270,  271,  272,  273,  274,  275,  276,  277,  278,  279,  280
  281,  282,  283,  284,  285,  286,  287,  288,  289,  290,  291,  292,  293,  294,  295,  296
  297,  298,  299,  300,  301,  302,  303,  304,  305,  306,  307,  308,  309,  310,  311,  312
  313,  314,  315,  316,  317,  318,  319,  320,  321,  322,  323,  324,  325,  326,  327,  328
** ... 191 like lines cut
*Elset, elset=block-1_gray1, generate
    1,  1600,     1
*Nset, nset=block-1_gray2
    1,    2,    5,    8,    9,   10,   11,   12,   17,   18,   19,   20,   21,   22,   23,   24
   25,   26,   27,   28,   29,   30,   31,   32,   33,   34,   35,   36,   37,   38,   39,   40
   41,   42,   43,   44,   45,   46,   47,   48,   49,   50,   51,   52,   53,   54,   55,   95
   96,   97,   98,   99,  100,  101,  102,  103,  104,  105,  106,  107,  108,  109,  110,  111
  112,  113,  114,  115,  116,  117,  118,  119,  120,  121,  122,  123,  124,  125,  126,  127
  128,  129,  130,  131,  132,  133,  212,  213,  214,  215,  216,  217,  218,  219,  220,  221
  222,  223,  224,  225,  226,  227,  228,  229,  230,  231,  232,  233,  234,  235,  236,  237
  238,  239,  240,  241,  242,  243,  244,  245,  246,  247,  248,  249,  250,  290,  291,  292
  293,  294,  295,  296,  297,  298,  299,  300,  301,  302,  303,  304,  305,  306,  307,  308
  309,  310,  311,  312,  313,  314,  315,  316,  317,  318,  319,  320,  321,  322,  323,  324
  325,  326,  327,  328,  329,  330,  331,  332,  333,  334,  335,  336,  337,  338,  339,  340
  341,  342,  343,  344,  345,  346,  347,  348,  349,  350,  351,  352,  353,  354,  355,  356
  357,  358,  359,  360,  361,  362,  363,  364,  365,  366,  367,  368,  369,  370,  371,  372
  373,  374,  375,  376,  377,  378,  379,  380,  381,  382,  383,  384,  385,  386,  387,  388
  389,  390,  391,  392,  393,  394,  395,  396,  397,  398,  399,  400,  401,  402,  403,  404
  405,  406,  407,  408,  409,  410,  411,  412,  413,  414,  415,  416,  417,  418,  419,  420
  421,  422,  423,  424,  425,  426,  427,  428,  429,  430,  431,  432,  433,  434,  435,  436
  437,  438,  439,  440,  441,  442,  443,  444,  445,  446,  447,  448,  449,  450,  451,  452
  453,  454,  455,  456,  457,  458,  459,  460,  461,  462,  463,  464,  465,  466,  467,  468
  469,  470,  471,  472,  473,  474,  475,  476,  477,  478,  479,  480,  481,  482,  483,  484
** ... 191 like lines cut
*Elset, elset=block-1_gray2, generate
 1601,  3200,     1
*Nset, nset=block-1_graybot
    9,   10,   11,   12,  329,  330,  331,  332,  333,  334,  335,  336,  337,  338,  339,  340
  341,  342,  343,  344,  345,  346,  347,  348,  349,  350,  351,  352,  353,  354,  355,  356
  357,  358,  359,  360,  361,  362,  363,  364,  365,  366,  367,  368,  369,  370,  371,  372
  373,  374,  375,  376,  377,  378,  379,  380,  381,  382,  383,  384,  385,  386,  387,  388
  389,  390,  391,  392,  393,  394,  395,  396,  397,  398,  399,  400,  401,  402,  403,  404
  405,  406,  407,  408,  409,  410,  411,  412,  413,  414,  415,  416,  417,  418,  419,  420
  421,  422,  423,  424,  425,  426,  427,  428,  429,  430,  431,  432,  433,  434,  435,  436
  437,  438,  439,  440,  441,  442,  443,  444,  445,  446,  447,  448,  449,  450,  451,  452
  453,  454,  455,  456,  457,  458,  459,  460,  461,  462,  463,  464,  465,  466,  467,  468
  469,  470,  471,  472,  473,  474,  475,  476,  477,  478,  479,  480,  481,  482,  483,  484
 3695, 3696, 3697, 3698, 3699, 3700, 3701, 3702, 3703, 3704, 3705, 3706, 3707, 3708, 3709, 3710
 3711, 3712, 3713, 3714, 3715, 3716, 3717, 3718, 3719, 3720, 3721, 3722, 3723, 3724, 3725, 3726
 3727, 3728, 3729, 3730, 3731, 3732, 3733, 3734, 3735, 3736, 3737, 3738, 3739, 3740, 3741, 3742
 3743, 3744, 3745, 3746, 3747, 3748, 3749, 3750, 3751, 3752, 3753, 3754, 3755, 3756, 3757, 3758
 3759, 3760, 3761, 3762, 3763, 3764, 3765, 3766, 3767, 3768, 3769, 3770, 3771, 3772, 3773, 3774
 3775, 3776, 3777, 3778, 3779, 3780, 3781, 3782, 3783, 3784, 3785, 3786, 3787, 3788, 3789, 3790
 3791, 3792, 3793, 3794, 3795, 3796, 3797, 3798, 3799, 3800, 3801, 3802, 3803, 3804, 3805, 3806
 3807, 3808, 3809, 3810, 3811, 3812, 3813, 3814, 3815, 3816, 3817, 3818, 3819, 3820, 3821, 3822
 3823, 3824, 3825, 3826, 3827, 3828, 3829, 3830, 3831, 3832, 3833, 3834, 3835, 3836, 3837, 3838
 3839, 3840, 3841, 3842, 3843, 3844, 3845, 3846, 3847, 3848, 3849, 3850, 3851, 3852, 3853, 3854
** ... 86 like lines cut
*Elset, elset=block-1_graybot
 1601, 1602, 1603, 1604, 1605, 1606, 1607, 1608, 1609, 1610, 1611, 1612, 1613, 1614, 1615, 1616
 1617, 1618, 1619, 1620, 1621, 1622, 1623, 1624, 1625, 1626, 1627, 1628, 1629, 1630, 1631, 1632
 1633, 1634, 1635, 1636, 1637, 1638, 1639, 1640, 1641, 1642, 1643, 1644, 1645, 1646, 1647, 1648
 1649, 1650, 1651, 1652, 1653, 1654, 1655, 1656, 1657, 1658, 1659, 1660, 1661, 1662, 1663, 1664
 1665, 1666, 1667, 1668, 1669, 1670, 1671, 1672, 1673, 1674, 1675, 1676, 1677, 1678, 1679, 1680
 1681, 1682, 1683, 1684, 1685, 1686, 1687, 1688, 1689, 1690, 1691, 1692, 1693, 1694, 1695, 1696
 1697, 1698, 1699, 1700, 1701, 1702, 1703, 1704, 1705, 1706, 1707, 1708, 1709, 1710, 1711, 1712
 1713, 1714, 1715, 1716, 1717, 1718, 1719, 1720, 1721, 1722, 1723, 1724, 1725, 1726, 1727, 1728
 1729, 1730, 1731, 1732, 1733, 1734, 1735, 1736, 1737, 1738, 1739, 1740, 1741, 1742, 1743, 1744
 1745, 1746, 1747, 1748, 1749, 1750, 1751, 1752, 1753, 1754, 1755, 1756, 1757, 1758, 1759, 1760
 1761, 1762, 1763, 1764, 1765, 1766, 1767, 1768, 1769, 1770, 1771, 1772, 1773, 1774, 1775, 1776
 1777, 1778, 1779, 1780, 1781, 1782, 1783, 1784, 1785, 1786, 1787, 1788, 1789, 1790, 1791, 1792
 1793, 1794, 1795, 1796, 1797, 1798, 1799, 1800, 1801, 1802, 1803, 1804, 1805, 1806, 1807, 1808
 1809, 1810, 1811, 1812, 1813, 1814, 1815, 1816, 1817, 1818, 1819, 1820, 1821, 1822, 1823, 1824
 1825, 1826, 1827, 1828, 1829, 1830, 1831, 1832, 1833, 1834, 1835, 1836, 1837, 1838, 1839, 1840
 1841, 1842, 1843, 1844, 1845, 1846, 1847, 1848, 1849, 1850, 1851, 1852, 1853, 1854, 1855, 1856
 1857, 1858, 1859, 1860, 1861, 1862, 1863, 1864, 1865, 1866, 1867, 1868, 1869, 1870, 1871, 1872
 1873, 1874, 1875, 1876, 1877, 1878, 1879, 1880, 1881, 1882, 1883, 1884, 1885, 1886, 1887, 1888
 1889, 1890, 1891, 1892, 1893, 1894, 1895, 1896, 1897, 1898, 1899, 1900, 1901, 1902, 1903, 1904
 1905, 1906, 1907, 1908, 1909, 1910, 1911, 1912, 1913, 1914, 1915, 1916, 1917, 1918, 1919, 1920
** ... 180 like lines cut
*Elset, elset=_block-1_topsurf_S5, generate
    1,  1600,     1
*Surface, type=ELEMENT, name=block-1_topsurf
_block-1_topsurf_S5, S5
** ----------------------------------------------------------------
** 
** PART INSTANCE: RigigWall-1
** 
*System
        0.03,       0.025,        0.04,        1.03,       0.025,        0.04
        0.03,0.0250000000000001,        1.04
*Node
  11768,           0., 0.0199999996,           0.
*Nset, nset=RigigWall-1-RefPt_
11768, 
*Surface, type=CYLINDER, name=RigigWall-1_rigidsurf4
0.03, 0.025, 0.04, 100.03, 0.025, 0.04
0.03, 100.025, 0.04
START,           0.,         0.02
 LINE,           0.,        -0.01
*Rigid Body, ref node=RigigWall-1-RefPt_, analytical surface=RigigWall-1_rigidsurf4
** ----------------------------------------------------------------
** 
** PART INSTANCE: RigigWall-2
** 
*System
       0.045,        0.01,        0.04,0.0450000000000001,       -0.99,        0.04
0.0450000000000001,        0.01,        1.04
*Node
  11769,           0., 0.0199999996,           0.
*Nset, nset=RigigWall-2-RefPt_
11769, 
*Surface, type=CYLINDER, name=RigigWall-2_rigidsurf3
0.045, 0.01, 0.04, 0.045, -99.99, 0.04
100.045, 0.01, 0.04
START,           0.,        -0.01
 LINE,           0.,         0.02
*Rigid Body, ref node=RigigWall-2-RefPt_, analytical surface=RigigWall-2_rigidsurf3
** ----------------------------------------------------------------
** 
** PART INSTANCE: RigigWall-3
** 
*System
       0.045,        0.04,        0.04,0.0450000000000001,       -0.96,        0.04
0.0449999999999998,        0.04,        1.04
*Node
  11770,           0., 0.0199999996,           0.
*Nset, nset=RigigWall-3-RefPt_
11770, 
*Surface, type=CYLINDER, name=RigigWall-3_rigidsurf1
0.045, 0.04, 0.04, 0.045, -99.96, 0.04
100.045, 0.04, 0.04
START,           0.,         0.02
 LINE,           0.,        -0.01
*Rigid Body, ref node=RigigWall-3-RefPt_, analytical surface=RigigWall-3_rigidsurf1
** ----------------------------------------------------------------
** 
** PART INSTANCE: RigigWall-4
** 
*System
        0.06,       0.025,        0.04,       -0.94,0.0249999999999999,        0.04
        0.06,0.0249999999999999,        1.04
*Node
  11771,           0., 0.0199999996,           0.
*Nset, nset=RigigWall-4-RefPt_
11771, 
*Surface, type=CYLINDER, name=RigigWall-4_rigidsurf2
0.06, 0.025, 0.04, -99.94, 0.025, 0.04
0.06, -99.975, 0.04
START,           0.,         0.02
 LINE,           0.,        -0.01
*Rigid Body, ref node=RigigWall-4-RefPt_, analytical surface=RigigWall-4_rigidsurf2
*System
*Nset, nset=Set-1
11768,
*Nset, nset=Set-1
11769,
*Nset, nset=Set-1
11770,
*Nset, nset=Set-1
11771,
*******************************************************************
**  Specification Of Material Properties
*******************************************************************
*Section controls, hourglass=enhanced, name=sec_con
*Solid Section, elset=block-1_gray1, material=GRAY,controls=sec_con
**
**
*Material, Name=GRAY
***      mu        = props(1)
***      lambda    = props(2)
***      Gaxn      = props(3)
***      lam0      = props(4)
***      **gray matter 
***      mu_g      = props(5)
***      lambda_g  = props(6)
***      Gctx      = props(7)
***      Aconst    = props(8)
***      charlength = props(9)
*User material,Constants=9
<mu>,<lam>,<Gaxn>,<lam0>,<mu_g>,<lambda_g>,<Gctx>,<Aconst>,
<charlength>
*Depvar
6
*Density
1.0
**
*******************************************************************
**  Specification Of Material Properties
*******************************************************************
*Solid Section, elset=block-1_gray2, material=GRAZ,controls=sec_con
**
**
*Material, Name=GRAZ
***      mu        = props(1)
***      lambda    = props(2)
***      Gaxn      = props(3)
***      lam0      = props(4)
***      **gray matter 
***      mu_g      = props(5)
***      lambda_g  = props(6)
***      Gctx      = props(7)
***      Aconst    = props(8)
***      charlength = props(9)
*User material,Constants=9
<mu>,<lam>,<Gaxn>,<lam0>,<mu_g>,<lambda_g>,<Gctx>,<Aconst>,
<charlength>
*Depvar
6
*Density
1.0
**
*******************************************************************
**  Specification Of Material Properties
*******************************************************************
*Solid Section, elset=block-1_white, material=WHIT, controls=sec_con
**
**
*Material, Name=WHIT
***      mu        = props(1)
***      lambda    = props(2)
***      Gaxn      = props(3)
***      lam0      = props(4)
***      **gray matter 
***      mu_g      = props(5)
***      lambda_g  = props(6)
***      Gctx      = props(7)
***      Aconst    = props(8)
***      charlength = props(9)
*User material,Constants=9
<mu>,<lam>,<Gaxn>,<lam0>,<mu_g>,<lambda_g>,<Gctx>,<Aconst>,
<charlength>
*Depvar
1
*Density
1.0
**
**
*********************************************************************
**                 INITIAL CONDITIONS, MODEL DATA
*********************************************************************
*INITIAL CONDITIONS,TYPE=SOLUTION,USER
**
**
** INTERACTION PROPERTIES
**
*Surface Interaction, name=intFric
*Friction
0.0
*Surface Behavior, pressure-overclosure=hard
**
*Surface Interaction, name=intRough
*Friction, rough
*Surface Behavior, pressure-overclosure=hard
**
*Surface Interaction, name=intNosep
*Friction
0.0
*Surface Behavior, no separation
**
*Surface Interaction, name=intSomeFric
*Friction
10.0
*Surface Behavior, pressure-overclosure=hard
**
** BOUNDARY CONDITIONS
** 
** Name: XYsym Type: Symmetry/Antisymmetry/Encastre
*Boundary
block-1_XYface, YSYMM
** Name: YZsym Type: Symmetry/Antisymmetry/Encastre
*Boundary
block-1_YZface, XSYMM
** Name: botfix Type: Symmetry/Antisymmetry/Encastre
*Boundary
block-1_bot, ENCASTRE
** Name: wallfix Type: Symmetry/Antisymmetry/Encastre
*Boundary
Set-1, ENCASTRE
** ----------------------------------------------------------------
** 
** STEP: grow
** 
*Step, name=grow, nlgeom=YES
*dynamic, explicit
,<time>
** 
*fixed mass scaling, factor=<mass_factor>
**
**
**
*Dsload
block-1_topsurf, vp, <cd>
**
**
** INTERACTIONS
**
*Contact Pair, interaction=intSomeFric, , mechanical constraint=kinematic
block-1_topsurf,
**
*Contact Pair, interaction=intSomeFric, , mechanical constraint=kinematic
RigigWall-1_rigidsurf4 , block-1_topsurf
**
*Contact Pair, interaction=intSomeFric, , mechanical constraint=kinematic
RigigWall-2_rigidsurf3 , block-1_topsurf
**
*Contact Pair, interaction=intSomeFric, , mechanical constraint=kinematic
RigigWall-3_rigidsurf1 , block-1_topsurf
**
*Contact Pair, interaction=intSomeFric, , mechanical constraint=kinematic
RigigWall-4_rigidsurf2 , block-1_topsurf
**
** OUTPUT REQUESTS
** 
** 
** FIELD OUTPUT: F-Output-1
** 
*Output, field, variable=all, NUMBER INTERVAL=500
** 
** HISTORY OUTPUT: H-Output-1
** 
*Output, history, variable=PRESELECT
*End Step
